<routes>
    <vType accel="0.1" decel="5.0" id="Car" minGap="2.0" maxSpeed="3.0" sigma="0.5" speedFactor="0.3" speedDev="0.1" guiShape="passenger" />

    <vType accel="0.1" decel="5.0" id="Bus" minGap="3.0" maxSpeed="2.0" sigma="0.5" speedFactor="0.2" speedDev="0.1" guiShape="bus" />

    <flow id="fluxo1" color="1,1,0"  begin="0" end= "5000" departLane="random" departSpeed="random" probability="0.07" type="Car">
        <route edges="R1 R2"/>
    </flow>

    <flow id="fluxo2" color="1,1,0"  begin="0" end= "5000" departLane="random" departSpeed="random" probability="0.02" type="Bus">
        <route edges="R1 R2"/>
    </flow>

</routes>
